Circuit: * C:\users\matias\My Documents\Projects\hytte_charger\spice\Draft1.asc

Error on line 7 : v1 0 n003 v
	 Unknown parameter "v"
V1: Missing value, assumed 0V @ DC
Direct Newton iteration for .op point succeeded.

Date: Sun Jun 16 13:41:23 2019
Total elapsed time: 0.096 seconds.

tnom = 27
temp = 27
method = modified trap
totiter = 2095
traniter = 2088
tranpoints = 1045
accept = 1045
rejected = 0
matrix size = 6
fillins = 0
solver = Normal
Matrix Compiler1: 164 bytes object code size  0.4/0.3/[0.3]
Matrix Compiler2: off  [0.3]/0.4/0.4

