Circuit: * C:\users\matias\My Documents\Projects\hytte_charger\spice\reverse_voltage_protection.lnk.asc

Direct Newton iteration for .op point succeeded.

Date: Sun Sep 29 14:12:52 2019
Total elapsed time: 0.135 seconds.

tnom = 27
temp = 27
method = modified trap
totiter = 2110
traniter = 2092
tranpoints = 1047
accept = 1047
rejected = 0
matrix size = 12
fillins = 7
solver = Normal
Matrix Compiler1: 898 bytes object code size  0.5/0.5/[0.4]
Matrix Compiler2: off  [0.4]/0.6/0.7

