Circuit: * C:\users\matias\My Documents\Projects\hytte_charger\spice\reverse_voltage_protection.lnk.asc

Error on line 8 : s1 out n002 n001 0 sw
	 Unable to find definition of model "sw"
Limiting rise time of source v2 to 0.1
Limiting fall time of source v2 to 0.1
Direct Newton iteration for .op point succeeded.

Date: Sat Jun 15 00:09:46 2019
Total elapsed time: 1.178 seconds.

tnom = 27
temp = 27
method = modified trap
totiter = 2249
traniter = 2228
tranpoints = 1105
accept = 1095
rejected = 10
matrix size = 13
fillins = 4
solver = Normal
Matrix Compiler1: 834 bytes object code size  0.5/0.5/[0.4]
Matrix Compiler2: off  [0.5]/0.6/0.9

